75

Au         1.63186        0.63294       -5.88012
Au         5.63602        1.16372        3.61841
Au         4.61197       -1.66045        4.51284
Au         1.90697        3.77632        1.89933
Au        -3.32334        3.51753        1.96368
Au        -0.96767       -1.74074        1.77087
Au         3.85396        1.00532        6.33064
Au         7.96827        1.87783        1.69610
Au         3.44091        6.46553        2.31220
Au         3.63832        8.32928       -0.30418
Au        -2.13580        6.19512       -0.46377
Au         1.25581        0.57890       -2.49347
Au        -3.97057       -1.79374        0.67724
Au        -0.52009       -3.63460        4.32977
Au         3.34611       -5.33373       -0.49215
Au         3.57748       -0.34448       -2.84529
Au         5.89919       -1.26657       -3.20142
Au         1.66484        2.29190       -4.30079
Au         4.55811        1.91732       -2.30466
Au         7.11117        6.70527       -0.64925
Au         2.19065       -4.53979       -5.72660
Au        -0.85179        1.41800       -2.17696
Au         0.58075       -4.48315       -2.02038
Au         6.98369        3.47611       -0.97181
Au         6.96017       -1.46638        2.14829
Au         4.22060       -3.70854        2.10873
Au         0.97205       -4.42827        1.46712
Au        -1.94278       -4.30283        0.07251
Au        -3.77763       -0.03746       -2.08695
Au        -1.54947        0.50993       -4.42569
Au         2.10536       -2.13316       -0.52794
Au         4.30509        5.21690       -0.64926
Au         4.97973        7.36397       -3.06077
Au        -0.30783        4.59332       -2.80560
Au        -3.43860        3.18658       -1.38043
Au         4.07658       -0.54265        1.27891
Au         6.59385        0.25139       -0.58358
Au         4.55206        2.44611        0.88939
Au         5.87655        4.32226       -3.91586
Au         1.18822        6.10432       -0.15858
Au         2.03833        3.15605       -1.12150
Au        -0.95088       -1.61272       -1.42152
Au        -0.49589       -0.43369        4.69848
Au         1.83427       -1.82312        3.00134
Au         2.55863       -4.50574        4.67189
Au         1.93031       -1.74985        6.25306
Au        -1.75120        2.35699        5.85473
Au        -0.72654        5.54728        2.55330
Au        -0.69749        3.50413        0.15970
Au         4.79360        1.32272       -5.35608
Au         5.46123       -2.78297       -0.56571
Au         3.56816       -3.51222       -3.05988
Au         7.19484       -0.79228       -6.00174
Au         6.15411       -3.86887       -5.01880
Au         3.85152       -1.71219       -5.74326
Au         3.41765        3.98405       -6.41849
Au         2.83003        5.06185       -3.46225
Au         1.07685        0.65331        0.67052
Au        -0.59014        2.13596        2.94959
Au         1.53202        7.85194       -2.80041
Au         2.41553        1.16714        3.53872
Au         4.10214        3.85063        4.17968
Au         6.24372        4.87066        1.91982
Au         9.30443        4.68079        0.90929
Au         9.57600        1.56353       -1.06391
Au         7.48000        1.51878       -3.55841
Au         9.00235       -1.21336       -2.75032
Au         1.37510        1.41907        6.56423
Au         0.96111        4.11340        4.92225
Au         3.20051        4.05188        7.27677
Au         7.34032        3.98092        4.01164
Au         0.89773       -2.01670       -4.12490
Au        -2.15860        0.80983        0.51984
Au        -3.33791        0.38779        3.38042
Au        -5.27752        1.23650        0.64271
